18

 C 0.0 0.0 0.0
 C 1.2145 0.694 0.0
 C 1.2145 2.082 0.0
 C 0.0 2.776 0.0
 C -1.2145 2.082 0.0
 C -1.2145 0.694 0.0
 C 2.429 0.0 0.0
 C 3.6434999999999995 0.694 0.0
 C 3.6434999999999995 2.082 0.0
 C 2.4289999999999994 2.776 0.0
 H 0.0 -1.0 0.0
 H 0.0 3.776 0.0
 H -2.082 2.5776999999999997 0.0
 H -2.082 0.19829999999999998 0.0
 H 2.429 -1.0 0.0
 H 4.510999999999999 0.19829999999999998 0.0
 H 4.510999999999999 2.5776999999999997 0.0
 H 2.4289999999999994 3.776 0.0
